<?xml version="1.0" encoding="UTF-8"?>

<!-- generated on 2022-07-12 16:11:40 by Eclipse SUMO netconvert Version 1.12.0
<configuration xmlns:xsi="http://www.w3.org/2001/XMLSchema-instance" xsi:noNamespaceSchemaLocation="http://sumo.dlr.de/xsd/netconvertConfiguration.xsd">

    <input>
        <osm-files value="map.osm"/>
    </input>

    <output>
        <output-file value="map.net.xml"/>
    </output>

    <projection>
        <proj.utm value="true"/>
    </projection>

    <processing>
        <geometry.remove value="true"/>
        <roundabouts.guess value="true"/>
    </processing>

    <tls_building>
        <tls.discard-simple value="true"/>
        <tls.join value="true"/>
        <tls.guess-signals value="true"/>
    </tls_building>

    <ramp_guessing>
        <ramps.guess value="true"/>
    </ramp_guessing>

    <junctions>
        <junctions.join value="true"/>
    </junctions>

    <report>
        <aggregate-warnings value="5"/>
    </report>

</configuration>
-->

<net version="1.9" junctionCornerDetail="5" limitTurnSpeed="5.50" xmlns:xsi="http://www.w3.org/2001/XMLSchema-instance" xsi:noNamespaceSchemaLocation="http://sumo.dlr.de/xsd/net_file.xsd">

    <location netOffset="-360702.46,-5477097.83" convBoundary="0.00,0.00,1396.32,901.56" origBoundary="1.078608,49.430707,1.098167,49.438774" projParameter="+proj=utm +zone=31 +ellps=WGS84 +datum=WGS84 +units=m +no_defs"/>

    <type id="highway.bridleway" priority="1" numLanes="1" speed="2.78" allow="pedestrian" oneway="1" width="2.00"/>
    <type id="highway.bus_guideway" priority="1" numLanes="1" speed="27.78" allow="bus" oneway="1"/>
    <type id="highway.cycleway" priority="1" numLanes="1" speed="8.33" allow="bicycle" oneway="0" width="1.00"/>
    <type id="highway.footway" priority="1" numLanes="1" speed="2.78" allow="pedestrian" oneway="1" width="2.00"/>
    <type id="highway.ford" priority="1" numLanes="1" speed="2.78" allow="army" oneway="0"/>
    <type id="highway.living_street" priority="2" numLanes="1" speed="2.78" disallow="tram rail_urban rail rail_electric rail_fast ship" oneway="0"/>
    <type id="highway.motorway" priority="14" numLanes="2" speed="39.44" allow="private emergency authority army vip passenger hov taxi bus coach delivery truck trailer motorcycle evehicle custom1 custom2" oneway="1"/>
    <type id="highway.motorway_link" priority="9" numLanes="1" speed="22.22" allow="private emergency authority army vip passenger hov taxi bus coach delivery truck trailer motorcycle evehicle custom1 custom2" oneway="1"/>
    <type id="highway.path" priority="1" numLanes="1" speed="2.78" allow="pedestrian bicycle" oneway="0" width="2.00"/>
    <type id="highway.pedestrian" priority="1" numLanes="1" speed="2.78" allow="pedestrian" oneway="1" width="2.00"/>
    <type id="highway.primary" priority="12" numLanes="2" speed="27.78" disallow="tram rail_urban rail rail_electric rail_fast ship" oneway="0"/>
    <type id="highway.primary_link" priority="7" numLanes="1" speed="22.22" disallow="tram rail_urban rail rail_electric rail_fast ship" oneway="0"/>
    <type id="highway.raceway" priority="15" numLanes="2" speed="83.33" allow="vip" oneway="0"/>
    <type id="highway.residential" priority="3" numLanes="1" speed="13.89" disallow="tram rail_urban rail rail_electric rail_fast ship" oneway="0"/>
    <type id="highway.secondary" priority="11" numLanes="1" speed="27.78" disallow="tram rail_urban rail rail_electric rail_fast ship" oneway="0"/>
    <type id="highway.secondary_link" priority="6" numLanes="1" speed="22.22" disallow="tram rail_urban rail rail_electric rail_fast ship" oneway="0"/>
    <type id="highway.service" priority="1" numLanes="1" speed="5.56" allow="pedestrian delivery bicycle" oneway="0"/>
    <type id="highway.stairs" priority="1" numLanes="1" speed="1.39" allow="pedestrian" oneway="1" width="2.00"/>
    <type id="highway.step" priority="1" numLanes="1" speed="1.39" allow="pedestrian" oneway="1" width="2.00"/>
    <type id="highway.steps" priority="1" numLanes="1" speed="1.39" allow="pedestrian" oneway="1" width="2.00"/>
    <type id="highway.tertiary" priority="10" numLanes="1" speed="22.22" disallow="tram rail_urban rail rail_electric rail_fast ship" oneway="0"/>
    <type id="highway.tertiary_link" priority="5" numLanes="1" speed="22.22" disallow="tram rail_urban rail rail_electric rail_fast ship" oneway="0"/>
    <type id="highway.track" priority="1" numLanes="1" speed="5.56" allow="pedestrian motorcycle moped bicycle" oneway="0"/>
    <type id="highway.trunk" priority="13" numLanes="2" speed="27.78" disallow="pedestrian bicycle tram rail_urban rail rail_electric rail_fast ship" oneway="0"/>
    <type id="highway.trunk_link" priority="8" numLanes="1" speed="22.22" disallow="pedestrian bicycle tram rail_urban rail rail_electric rail_fast ship" oneway="0"/>
    <type id="highway.unclassified" priority="4" numLanes="1" speed="13.89" disallow="tram rail_urban rail rail_electric rail_fast ship" oneway="0"/>
    <type id="highway.unsurfaced" priority="1" numLanes="1" speed="8.33" disallow="tram rail_urban rail rail_electric rail_fast ship" oneway="0"/>
    <type id="railway.highspeed" priority="21" numLanes="1" speed="69.44" allow="rail_fast" oneway="1"/>
    <type id="railway.light_rail" priority="19" numLanes="1" speed="27.78" allow="rail_urban" oneway="1"/>
    <type id="railway.preserved" priority="16" numLanes="1" speed="27.78" allow="rail" oneway="1"/>
    <type id="railway.rail" priority="20" numLanes="1" speed="44.44" allow="rail" oneway="1"/>
    <type id="railway.subway" priority="18" numLanes="1" speed="27.78" allow="rail_urban" oneway="1"/>
    <type id="railway.tram" priority="17" numLanes="1" speed="13.89" allow="tram" oneway="1"/>

    <edge id=":1210841512_0" function="internal">
        <lane id=":1210841512_0_0" index="0" allow="bicycle" speed="2.04" length="1.46" width="1.00" shape="282.58,126.78 282.39,126.37 282.42,126.10 282.66,125.95 283.11,125.93"/>
    </edge>
    <edge id=":1559078289_0" function="internal">
        <lane id=":1559078289_0_0" index="0" disallow="tram rail_urban rail rail_electric rail_fast ship" speed="6.45" length="9.03" shape="866.43,213.99 864.28,212.74 862.26,212.50 860.37,213.25 858.62,215.01"/>
    </edge>
    <edge id=":1559078289_1" function="internal">
        <lane id=":1559078289_1_0" index="0" disallow="tram rail_urban rail rail_electric rail_fast ship" speed="8.09" length="14.23" shape="866.43,213.99 863.71,211.16 862.52,208.14 862.84,204.94 864.68,201.56"/>
    </edge>
    <edge id=":1559078289_2" function="internal">
        <lane id=":1559078289_2_0" index="0" disallow="tram rail_urban rail rail_electric rail_fast ship" speed="3.65" length="4.67" shape="866.43,213.99 865.98,212.62 866.16,211.74 866.97,211.36 868.41,211.48"/>
    </edge>
    <edge id=":1559078289_3" function="internal">
        <lane id=":1559078289_3_0" index="0" disallow="tram rail_urban rail rail_electric rail_fast ship" speed="6.61" length="9.17" shape="867.24,203.48 866.07,205.65 865.87,207.70 866.65,209.65 868.41,211.48"/>
    </edge>
    <edge id=":1559078289_4" function="internal">
        <lane id=":1559078289_4_0" index="0" disallow="tram rail_urban rail rail_electric rail_fast ship" speed="8.33" length="14.40" shape="867.24,203.48 858.62,215.01"/>
    </edge>
    <edge id=":1559078289_5" function="internal">
        <lane id=":1559078289_5_0" index="0" disallow="tram rail_urban rail rail_electric rail_fast ship" speed="3.65" length="4.67" shape="867.24,203.48 865.89,203.96 865.00,203.80 864.60,203.00 864.68,201.56"/>
    </edge>
    <edge id=":1559078289_6" function="internal">
        <lane id=":1559078289_6_0" index="0" disallow="tram rail_urban rail rail_electric rail_fast ship" speed="8.33" length="14.40" shape="856.05,213.09 864.68,201.56"/>
    </edge>
    <edge id=":1559078289_7" function="internal">
        <lane id=":1559078289_7_0" index="0" disallow="tram rail_urban rail rail_electric rail_fast ship" speed="7.95" length="14.29" shape="856.05,213.09 858.83,210.31 861.82,209.12 865.01,209.51 868.41,211.48"/>
    </edge>
    <edge id=":1559078289_8" function="internal">
        <lane id=":1559078289_8_0" index="0" disallow="tram rail_urban rail rail_electric rail_fast ship" speed="3.65" length="4.67" shape="856.05,213.09 857.41,212.61 858.29,212.77 858.70,213.57 858.62,215.01"/>
    </edge>
    <edge id=":1559078300_0" function="internal">
        <lane id=":1559078300_0_0" index="0" allow="pedestrian delivery bicycle" speed="8.33" length="10.33" shape="856.63,226.34 854.22,224.54 852.37,223.44 850.52,222.34 848.09,220.56"/>
    </edge>
    <edge id=":1559078300_1" function="internal">
        <lane id=":1559078300_1_0" index="0" disallow="tram rail_urban rail rail_electric rail_fast ship" speed="8.01" length="13.73" shape="856.63,226.34 854.11,223.59 853.02,220.65 853.38,217.55 855.17,214.27"/>
    </edge>
    <edge id=":1559078300_2" function="internal">
        <lane id=":1559078300_2_0" index="0" disallow="tram rail_urban rail rail_electric rail_fast ship" speed="6.51" length="8.74" shape="857.74,216.19 856.59,218.27 856.37,220.25 857.06,222.12 858.66,223.87"/>
    </edge>
    <edge id=":1559078300_3" function="internal">
        <lane id=":1559078300_3_0" index="0" allow="pedestrian delivery bicycle" speed="7.27" length="3.19" shape="857.74,216.19 855.63,218.59"/>
    </edge>
    <edge id=":1559078300_7" function="internal">
        <lane id=":1559078300_7_0" index="0" allow="pedestrian delivery bicycle" speed="7.27" length="8.66" shape="855.63,218.59 855.01,219.30 852.49,221.07 850.18,221.49 848.09,220.56"/>
    </edge>
    <edge id=":1559078300_4" function="internal">
        <lane id=":1559078300_4_0" index="0" allow="pedestrian delivery bicycle" speed="5.85" length="7.29" shape="849.39,217.50 850.54,217.93 851.89,217.54 853.43,216.32 855.17,214.27"/>
    </edge>
    <edge id=":1559078300_5" function="internal">
        <lane id=":1559078300_5_0" index="0" allow="pedestrian delivery bicycle" speed="8.33" length="11.25" shape="849.39,217.50 858.66,223.87"/>
    </edge>
    <edge id=":1559078300_6" function="internal">
        <lane id=":1559078300_6_0" index="0" allow="pedestrian delivery bicycle" speed="3.70" length="4.86" shape="849.39,217.50 850.22,218.75 850.27,219.68 849.56,220.28 848.09,220.56"/>
    </edge>
    <edge id=":1559078303_0" function="internal">
        <lane id=":1559078303_0_0" index="0" disallow="tram rail_urban rail rail_electric rail_fast ship" speed="6.44" length="9.03" shape="878.49,219.45 880.64,220.69 882.66,220.94 884.54,220.17 886.29,218.41"/>
    </edge>
    <edge id=":1559078303_1" function="internal">
        <lane id=":1559078303_1_0" index="0" disallow="tram rail_urban rail rail_electric rail_fast ship" speed="3.65" length="4.67" shape="878.49,219.45 878.94,220.82 878.76,221.69 877.95,222.07 876.51,221.96"/>
    </edge>
    <edge id=":1559078303_2" function="internal">
        <lane id=":1559078303_2_0" index="0" disallow="tram rail_urban rail rail_electric rail_fast ship" speed="6.63" length="9.19" shape="877.72,229.98 878.88,227.81 879.07,225.75 878.28,223.80 876.51,221.96"/>
    </edge>
    <edge id=":1559078303_3" function="internal">
        <lane id=":1559078303_3_0" index="0" disallow="tram rail_urban rail rail_electric rail_fast ship" speed="8.33" length="14.40" shape="877.72,229.98 886.29,218.41"/>
    </edge>
    <edge id=":1559078312_0" function="internal">
        <lane id=":1559078312_0_0" index="0" disallow="tram rail_urban rail rail_electric rail_fast ship" speed="8.33" length="11.49" shape="876.77,240.61 874.11,238.86 871.80,237.74 869.52,236.60 866.90,234.78"/>
    </edge>
    <edge id=":1559078312_1" function="internal">
        <lane id=":1559078312_1_0" index="0" disallow="tram rail_urban rail rail_electric rail_fast ship" speed="7.01" length="10.46" shape="876.77,240.61 875.12,238.76 874.56,236.59 875.09,234.12 876.71,231.35"/>
    </edge>
    <edge id=":1559078312_2" function="internal">
        <lane id=":1559078312_2_0" index="0" disallow="tram rail_urban rail rail_electric rail_fast ship" speed="6.40" length="9.04" shape="868.94,232.31 871.07,233.60 873.07,233.87 874.95,233.12 876.71,231.35"/>
    </edge>
    <edge id=":1559078312_3" function="internal">
        <lane id=":1559078312_3_0" index="0" disallow="tram rail_urban rail rail_electric rail_fast ship" speed="3.65" length="4.67" shape="868.94,232.31 869.36,233.69 869.16,234.56 868.34,234.93 866.90,234.78"/>
    </edge>
    <edge id=":1559078312_4" function="internal">
        <lane id=":1559078312_4_0" index="0" disallow="tram rail_urban rail rail_electric rail_fast ship" speed="6.49" length="9.11" shape="867.67,242.70 868.99,240.60 869.31,238.58 868.61,236.64 866.90,234.78"/>
    </edge>
    <edge id=":1559078312_5" function="internal">
        <lane id=":1559078312_5_0" index="0" disallow="tram rail_urban rail rail_electric rail_fast ship" speed="8.33" length="14.51" shape="867.67,242.70 876.71,231.35"/>
    </edge>
    <edge id=":1559078330_0" function="internal">
        <lane id=":1559078330_0_0" index="0" allow="pedestrian delivery bicycle" speed="5.08" length="4.96" shape="794.51,272.20 793.34,271.53 792.22,271.39 791.16,271.77 790.16,272.69"/>
    </edge>
    <edge id=":1559078330_1" function="internal">
        <lane id=":1559078330_1_0" index="0" allow="pedestrian delivery bicycle" speed="6.95" length="2.52" shape="794.51,272.20 792.65,270.50"/>
    </edge>
    <edge id=":1559078330_2" function="internal">
        <lane id=":1559078330_2_0" index="0" allow="pedestrian delivery bicycle" speed="3.65" length="1.30" shape="794.51,272.20 794.10,270.97"/>
    </edge>
    <edge id=":1559078330_9" function="internal">
        <lane id=":1559078330_9_0" index="0" allow="pedestrian delivery bicycle" speed="6.95" length="6.17" shape="792.65,270.50 791.33,268.72 790.58,266.86 790.37,264.92"/>
    </edge>
    <edge id=":1559078330_10" function="internal">
        <lane id=":1559078330_10_0" index="0" allow="pedestrian delivery bicycle" speed="3.65" length="3.37" shape="794.10,270.97 794.05,270.83 794.23,269.96 795.03,269.57 796.47,269.67"/>
    </edge>
    <edge id=":1559078330_3" function="internal">
        <lane id=":1559078330_3_0" index="0" allow="pedestrian delivery bicycle" speed="6.95" length="5.66" shape="793.57,265.04 793.72,266.20 794.25,267.36 795.17,268.51 796.47,269.67"/>
    </edge>
    <edge id=":1559078330_4" function="internal">
        <lane id=":1559078330_4_0" index="0" allow="pedestrian delivery bicycle" speed="6.95" length="8.64" shape="793.57,265.04 793.35,267.54 792.81,269.22 791.79,270.72 790.16,272.69"/>
    </edge>
    <edge id=":1559078330_5" function="internal">
        <lane id=":1559078330_5_0" index="0" allow="pedestrian delivery bicycle" speed="3.65" length="4.67" shape="793.57,265.04 792.73,266.21 791.91,266.58 791.13,266.15 790.37,264.92"/>
    </edge>
    <edge id=":1559078330_6" function="internal">
        <lane id=":1559078330_6_0" index="0" allow="pedestrian delivery bicycle" speed="6.95" length="6.53" shape="787.69,270.65 788.94,269.17 789.74,268.05 790.19,266.80 790.37,264.92"/>
    </edge>
    <edge id=":1559078330_7" function="internal">
        <lane id=":1559078330_7_0" index="0" allow="pedestrian delivery bicycle" speed="6.89" length="10.01" shape="787.69,270.65 789.71,268.81 791.84,268.03 794.10,268.32 796.47,269.67"/>
    </edge>
    <edge id=":1559078330_8" function="internal">
        <lane id=":1559078330_8_0" index="0" allow="pedestrian delivery bicycle" speed="3.65" length="1.44" shape="787.69,270.65 789.07,270.23"/>
    </edge>
    <edge id=":1559078330_11" function="internal">
        <lane id=":1559078330_11_0" index="0" allow="pedestrian delivery bicycle" speed="3.65" length="3.23" shape="789.07,270.23 789.94,270.43 790.31,271.25 790.16,272.69"/>
    </edge>
    <edge id=":1559078345_0" function="internal">
        <lane id=":1559078345_0_0" index="0" allow="pedestrian delivery bicycle" speed="8.33" length="10.14" shape="822.79,288.99 813.68,293.43"/>
    </edge>
    <edge id=":1559078345_1" function="internal">
        <lane id=":1559078345_1_0" index="0" allow="pedestrian delivery bicycle" speed="8.33" length="10.96" shape="822.79,288.99 820.65,289.56 818.26,289.29 815.61,288.20 812.72,286.28"/>
    </edge>
    <edge id=":1559078345_2" function="internal">
        <lane id=":1559078345_2_0" index="0" allow="pedestrian delivery bicycle" speed="3.65" length="4.67" shape="822.79,288.99 821.36,288.79 820.65,288.25 820.66,287.36 821.38,286.11"/>
    </edge>
    <edge id=":1559078345_3" function="internal">
        <lane id=":1559078345_3_0" index="0" allow="pedestrian delivery bicycle" speed="7.24" length="7.42" shape="814.67,283.75 816.77,285.19 818.59,286.07 820.12,286.37 821.38,286.11"/>
    </edge>
    <edge id=":1559078345_4" function="internal">
        <lane id=":1559078345_4_0" index="0" allow="pedestrian delivery bicycle" speed="6.67" length="12.87" shape="814.67,283.75 817.35,286.47 818.07,288.99 816.85,291.31 813.68,293.43"/>
    </edge>
    <edge id=":1559078345_5" function="internal">
        <lane id=":1559078345_5_0" index="0" allow="pedestrian delivery bicycle" speed="3.65" length="4.67" shape="814.67,283.75 815.13,285.12 814.96,285.99 814.15,286.38 812.72,286.28"/>
    </edge>
    <edge id=":1559078345_6" function="internal">
        <lane id=":1559078345_6_0" index="0" allow="pedestrian delivery bicycle" speed="4.70" length="5.69" shape="812.28,290.56 813.68,289.62 814.22,288.60 813.90,287.48 812.72,286.28"/>
    </edge>
    <edge id=":1559078345_7" function="internal">
        <lane id=":1559078345_7_0" index="0" allow="pedestrian delivery bicycle" speed="8.33" length="10.14" shape="812.28,290.56 821.38,286.11"/>
    </edge>
    <edge id=":1559078345_8" function="internal">
        <lane id=":1559078345_8_0" index="0" allow="pedestrian delivery bicycle" speed="3.65" length="4.67" shape="812.28,290.56 813.71,290.75 814.42,291.30 814.41,292.19 813.68,293.43"/>
    </edge>
    <edge id=":1559078346_0" function="internal">
        <lane id=":1559078346_0_0" index="0" allow="pedestrian delivery bicycle" speed="8.33" length="9.69" shape="773.32,295.65 767.98,287.56"/>
    </edge>
    <edge id=":1559078346_1" function="internal">
        <lane id=":1559078346_1_0" index="0" allow="pedestrian delivery bicycle" speed="7.84" length="10.51" shape="773.32,295.65 772.38,293.46 772.35,291.13 773.22,288.65 775.00,286.03"/>
    </edge>
    <edge id=":1559078346_2" function="internal">
        <lane id=":1559078346_2_0" index="0" allow="pedestrian delivery bicycle" speed="3.65" length="4.67" shape="773.32,295.65 773.33,294.20 773.78,293.43 774.66,293.32 775.99,293.88"/>
    </edge>
    <edge id=":1559078346_3" function="internal">
        <lane id=":1559078346_3_0" index="0" allow="pedestrian delivery bicycle" speed="6.27" length="6.42" shape="777.47,288.06 776.27,289.77 775.62,291.31 775.53,292.68 775.99,293.88"/>
    </edge>
    <edge id=":1559078346_4" function="internal">
        <lane id=":1559078346_4_0" index="0" allow="pedestrian delivery bicycle" speed="6.69" length="11.78" shape="777.47,288.06 774.97,290.34 772.55,291.02 770.22,290.09 767.98,287.56"/>
    </edge>
    <edge id=":1559078346_5" function="internal">
        <lane id=":1559078346_5_0" index="0" allow="pedestrian delivery bicycle" speed="3.65" length="4.67" shape="777.47,288.06 776.09,288.48 775.21,288.28 774.85,287.46 775.00,286.03"/>
    </edge>
    <edge id=":1559078346_6" function="internal">
        <lane id=":1559078346_6_0" index="0" allow="pedestrian delivery bicycle" speed="4.79" length="5.40" shape="770.65,285.80 771.68,286.96 772.75,287.38 773.85,287.07 775.00,286.03"/>
    </edge>
    <edge id=":1559078346_7" function="internal">
        <lane id=":1559078346_7_0" index="0" allow="pedestrian delivery bicycle" speed="8.33" length="9.69" shape="770.65,285.80 775.99,293.88"/>
    </edge>
    <edge id=":1559078346_8" function="internal">
        <lane id=":1559078346_8_0" index="0" allow="pedestrian delivery bicycle" speed="3.65" length="4.67" shape="770.65,285.80 770.64,287.24 770.20,288.01 769.31,288.12 767.98,287.56"/>
    </edge>
    <edge id=":1559078352_0" function="internal">
        <lane id=":1559078352_0_0" index="0" allow="pedestrian delivery bicycle" speed="8.33" length="8.89" shape="787.20,306.37 784.77,307.74 782.92,309.19 781.66,310.72 780.98,312.34"/>
    </edge>
    <edge id=":1559078352_1" function="internal">
        <lane id=":1559078352_1_0" index="0" allow="pedestrian delivery bicycle" speed="7.23" length="10.25" shape="787.20,306.37 784.73,307.12 782.45,306.88 780.35,305.64 778.45,303.40"/>
    </edge>
    <edge id=":1559078352_2" function="internal">
        <lane id=":1559078352_2_0" index="0" allow="pedestrian delivery bicycle" speed="3.65" length="4.67" shape="787.20,306.37 785.77,306.17 785.06,305.63 785.07,304.74 785.80,303.49"/>
    </edge>
    <edge id=":1559078352_3" function="internal">
        <lane id=":1559078352_3_0" index="0" allow="pedestrian delivery bicycle" speed="5.51" length="5.57" shape="781.12,301.64 782.19,302.93 783.32,303.66 784.53,303.85 785.80,303.49"/>
    </edge>
    <edge id=":1559078352_4" function="internal">
        <lane id=":1559078352_4_0" index="0" allow="pedestrian delivery bicycle" speed="8.33" length="10.92" shape="781.12,301.64 781.77,303.30 781.96,305.64 781.70,308.65 780.98,312.34"/>
    </edge>
    <edge id=":1559078352_5" function="internal">
        <lane id=":1559078352_5_0" index="0" allow="pedestrian delivery bicycle" speed="3.65" length="4.67" shape="781.12,301.64 781.11,303.08 780.67,303.85 779.78,303.96 778.45,303.40"/>
    </edge>
    <edge id=":1559078352_6" function="internal">
        <lane id=":1559078352_6_0" index="0" allow="pedestrian delivery bicycle" speed="7.59" length="5.36" shape="778.56,308.65 778.88,306.91 778.97,305.46 778.83,304.29 778.45,303.40"/>
    </edge>
    <edge id=":1559078352_7" function="internal">
        <lane id=":1559078352_7_0" index="0" allow="pedestrian delivery bicycle" speed="8.33" length="9.02" shape="778.56,308.65 779.17,307.64 780.58,306.44 782.79,305.06 785.80,303.49"/>
    </edge>
    <edge id=":1559078352_8" function="internal">
        <lane id=":1559078352_8_0" index="0" allow="pedestrian delivery bicycle" speed="4.09" length="6.45" shape="778.56,308.65 780.55,308.66 781.62,309.29 781.76,310.51 780.98,312.34"/>
    </edge>
    <edge id=":1578651392_0" function="internal">
        <lane id=":1578651392_0_0" index="0" allow="pedestrian delivery bicycle" speed="5.20" length="5.00" shape="535.80,462.67 535.00,461.62 534.02,461.04 532.86,460.94 531.54,461.32"/>
    </edge>
    <edge id=":1578651392_1" function="internal">
        <lane id=":1578651392_1_0" index="0" disallow="tram rail_urban rail rail_electric rail_fast ship" speed="13.89" length="6.05" shape="535.80,462.67 534.94,461.10 534.37,460.00 533.86,458.89 533.14,457.24"/>
    </edge>
    <edge id=":1788533129_0" function="internal">
        <lane id=":1788533129_0_0" index="0" allow="pedestrian delivery bicycle" speed="8.33" length="9.40" shape="716.85,479.79 708.30,483.70"/>
    </edge>
    <edge id=":1788533129_1" function="internal">
        <lane id=":1788533129_1_0" index="0" allow="pedestrian delivery bicycle" speed="6.86" length="10.18" shape="716.85,479.79 714.17,480.58 711.89,480.32 709.99,479.02 708.49,476.66"/>
    </edge>
    <edge id=":1788533129_2" function="internal">
        <lane id=":1788533129_2_0" index="0" allow="pedestrian delivery bicycle" speed="3.65" length="4.67" shape="716.85,479.79 715.42,479.56 714.72,479.00 714.76,478.10 715.51,476.88"/>
    </edge>
    <edge id=":1788533129_3" function="internal">
        <lane id=":1788533129_3_0" index="0" allow="pedestrian delivery bicycle" speed="5.04" length="5.00" shape="711.41,475.34 712.14,476.50 713.08,477.14 714.20,477.27 715.51,476.88"/>
    </edge>
    <edge id=":1788533129_4" function="internal">
        <lane id=":1788533129_4_0" index="0" allow="pedestrian delivery bicycle" speed="6.87" length="10.16" shape="711.41,475.34 712.19,478.02 711.93,480.30 710.64,482.20 708.30,483.70"/>
    </edge>
    <edge id=":1788533129_5" function="internal">
        <lane id=":1788533129_5_0" index="0" allow="pedestrian delivery bicycle" speed="3.65" length="4.67" shape="711.41,475.34 711.17,476.77 710.61,477.46 709.72,477.43 708.49,476.66"/>
    </edge>
    <edge id=":1788533129_6" function="internal">
        <lane id=":1788533129_6_0" index="0" allow="pedestrian delivery bicycle" speed="5.05" length="5.01" shape="706.97,480.79 708.12,480.05 708.75,479.12 708.88,477.99 708.49,476.66"/>
    </edge>
    <edge id=":1788533129_7" function="internal">
        <lane id=":1788533129_7_0" index="0" allow="pedestrian delivery bicycle" speed="8.33" length="9.40" shape="706.97,480.79 715.51,476.88"/>
    </edge>
    <edge id=":1788533129_8" function="internal">
        <lane id=":1788533129_8_0" index="0" allow="pedestrian delivery bicycle" speed="3.65" length="4.67" shape="706.97,480.79 708.39,481.02 709.09,481.58 709.06,482.47 708.30,483.70"/>
    </edge>
    <edge id=":1788533182_0" function="internal">
        <lane id=":1788533182_0_0" index="0" allow="pedestrian delivery bicycle" speed="6.95" length="7.59" shape="782.72,511.24 780.69,512.15 779.39,512.99 778.28,514.09 776.77,515.76"/>
    </edge>
    <edge id=":1788533182_1" function="internal">
        <lane id=":1788533182_1_0" index="0" allow="pedestrian delivery bicycle" speed="7.57" length="10.38" shape="782.72,511.24 779.99,511.95 777.55,511.77 775.41,510.69 773.56,508.72"/>
    </edge>
    <edge id=":1788533182_2" function="internal">
        <lane id=":1788533182_2_0" index="0" allow="pedestrian delivery bicycle" speed="3.71" length="1.51" shape="782.72,511.24 781.40,510.50"/>
    </edge>
    <edge id=":1788533182_9" function="internal">
        <lane id=":1788533182_9_0" index="0" allow="pedestrian delivery bicycle" speed="3.71" length="3.39" shape="781.40,510.50 780.92,509.70 781.27,508.83 782.46,507.89"/>
    </edge>
    <edge id=":1788533182_3" function="internal">
        <lane id=":1788533182_3_0" index="0" allow="pedestrian delivery bicycle" speed="6.85" length="9.47" shape="774.66,504.64 776.15,506.84 777.95,508.11 780.05,508.47 782.46,507.89"/>
    </edge>
    <edge id=":1788533182_4" function="internal">
        <lane id=":1788533182_4_0" index="0" allow="pedestrian delivery bicycle" speed="6.95" length="3.50" shape="774.66,504.64 776.09,507.83"/>
    </edge>
    <edge id=":1788533182_5" function="internal">
        <lane id=":1788533182_5_0" index="0" allow="pedestrian delivery bicycle" speed="4.10" length="5.85" shape="774.66,504.64 775.91,506.07 776.14,507.23 775.36,508.11 773.85,508.62"/>
    </edge>
    <edge id=":1788533182_10" function="internal">
        <lane id=":1788533182_10_0" index="0" allow="pedestrian delivery bicycle" speed="6.95" length="8.28" shape="776.09,507.83 776.42,508.59 777.37,511.75 777.48,514.14 776.77,515.76"/>
    </edge>
    <edge id=":1788533182_11" function="internal">
        <lane id=":1788533182_11_0" index="0" allow="pedestrian delivery bicycle" speed="4.10" length="0.31" shape="773.85,508.62 773.56,508.72"/>
    </edge>
    <edge id=":1788533182_6" function="internal">
        <lane id=":1788533182_6_0" index="0" allow="pedestrian delivery bicycle" speed="5.58" length="5.33" shape="774.41,513.59 774.91,512.69 774.93,511.58 774.48,510.25 773.56,508.72"/>
    </edge>
    <edge id=":1788533182_7" function="internal">
        <lane id=":1788533182_7_0" index="0" allow="pedestrian delivery bicycle" speed="6.95" length="10.01" shape="774.41,513.59 776.44,511.43 777.97,510.07 779.74,509.05 782.46,507.89"/>
    </edge>
    <edge id=":1788533182_8" function="internal">
        <lane id=":1788533182_8_0" index="0" allow="pedestrian delivery bicycle" speed="3.65" length="4.67" shape="774.41,513.59 775.81,513.25 776.67,513.49 776.99,514.33 776.77,515.76"/>
    </edge>
    <edge id=":1788533199_0" function="internal">
        <lane id=":1788533199_0_0" index="0" allow="pedestrian delivery bicycle" speed="3.65" length="4.67" shape="779.74,535.30 779.56,536.73 779.03,537.45 778.13,537.45 776.88,536.74"/>
    </edge>
    <edge id=":1788533239_0" function="internal">
        <lane id=":1788533239_0_0" index="0" allow="pedestrian delivery bicycle" speed="3.65" length="4.67" shape="647.32,583.87 646.60,585.11 645.82,585.56 645.00,585.21 644.13,584.06"/>
    </edge>
    <edge id=":1788533247_0" function="internal">
        <lane id=":1788533247_0_0" index="0" allow="pedestrian delivery bicycle" speed="8.33" length="0.29" shape="741.20,594.41 741.12,594.44 741.07,594.48 741.03,594.52 740.95,594.56"/>
    </edge>
    <edge id=":1788533247_1" function="internal">
        <lane id=":1788533247_1_0" index="0" allow="pedestrian delivery bicycle" speed="8.33" length="0.10" shape="739.59,591.67 739.67,591.68"/>
    </edge>
    <edge id=":1788533254_0" function="internal">
        <lane id=":1788533254_0_0" index="0" allow="pedestrian delivery bicycle" speed="5.02" length="5.02" shape="729.72,603.33 728.97,602.18 728.04,601.54 726.91,601.43 725.59,601.85"/>
    </edge>
    <edge id=":1788533254_1" function="internal">
        <lane id=":1788533254_1_0" index="0" allow="pedestrian delivery bicycle" speed="6.89" length="10.18" shape="729.72,603.33 728.92,600.65 729.15,598.35 730.42,596.43 732.73,594.90"/>
    </edge>
    <edge id=":1788533254_2" function="internal">
        <lane id=":1788533254_2_0" index="0" allow="pedestrian delivery bicycle" speed="3.65" length="4.67" shape="729.72,603.33 729.95,601.91 730.51,601.21 731.40,601.24 732.63,602.00"/>
    </edge>
    <edge id=":1788533254_3" function="internal">
        <lane id=":1788533254_3_0" index="0" allow="pedestrian delivery bicycle" speed="5.08" length="5.06" shape="734.09,597.80 732.95,598.55 732.33,599.51 732.22,600.65 732.63,602.00"/>
    </edge>